Version 4
SHEET 1 880 680
WIRE -144 16 -224 16
WIRE 384 80 256 80
WIRE 528 80 384 80
WIRE -224 128 -224 16
WIRE -144 128 -144 96
WIRE -48 128 -144 128
WIRE 64 128 32 128
WIRE 256 128 256 80
WIRE 528 128 528 80
WIRE -224 144 -224 128
WIRE 384 160 384 80
WIRE 304 192 256 192
WIRE 320 192 304 192
WIRE 320 208 320 192
WIRE -144 224 -144 208
WIRE -80 224 -144 224
WIRE 64 224 -80 224
WIRE 272 224 256 224
WIRE -224 240 -224 208
WIRE -144 240 -144 224
WIRE -144 240 -224 240
WIRE -80 256 -80 224
WIRE 528 256 528 208
WIRE 528 256 464 256
WIRE 304 304 304 256
WIRE 352 304 304 304
WIRE 528 304 528 256
WIRE 528 304 352 304
WIRE 352 320 352 304
WIRE 384 368 384 256
FLAG -80 256 0
FLAG 352 320 0
FLAG 384 368 CH_EN
SYMBOL Optos\\4N25 160 192 R0
SYMATTR InstName U1
SYMBOL res -160 112 R0
SYMATTR InstName R1
SYMATTR Value 2.4
SYMBOL voltage 528 112 R0
WINDOW 123 0 0 Left 2
WINDOW 39 0 0 Left 2
SYMATTR InstName V1
SYMATTR Value 4.5
SYMBOL ind -160 0 R0
SYMATTR InstName L1
SYMATTR Value 0.07
SYMBOL voltage -224 112 R0
WINDOW 123 0 0 Left 2
WINDOW 39 0 0 Left 2
SYMATTR InstName V2
SYMATTR Value SINE(0 22.6 60 0 0 0 4)
SYMBOL npn 320 160 R0
SYMATTR InstName Q1
SYMBOL cap 288 192 R0
SYMATTR InstName C1
SYMATTR Value 1µC
SYMBOL res 480 240 R90
WINDOW 0 0 56 VBottom 2
WINDOW 3 32 56 VTop 2
SYMATTR InstName R2
SYMATTR Value 20kR
SYMBOL res 48 112 R90
WINDOW 0 0 56 VBottom 2
WINDOW 3 32 56 VTop 2
SYMATTR InstName R3
SYMATTR Value 100R
TEXT -258 280 Left 2 !.tran 0 0.3 0 0.01
